/*--------------------------------*- C++ -*----------------------------------*
  =========                 |
        /  F ield         | OpenFOAM: The Open Source CFD Toolbox
       /   O peration     | Website:  https://openfoam.org
      /    A nd           | Version:  8
     /     M anipulation  |
*---------------------------------------------------------------------------*/
FoamFile
{
    version     2.0;
    format      ascii;
    class       dictionary;
    object      blockMeshDict;
}
// * * * * * * * * * * * * * * * * * * * * * * * * * * * * * * * * * * * * * //

convertToMeters 1;

vertices
(
    (0 0 0)
    (1.00000e+00 0 0)
    (1.00000e+00 2.5e-03 1.745241e-04)
    (0 2.5e-03 1.745241e-04)
    (0 2.5e-03 -1.745241e-04)
    (1.0000e+00 2.5e-03 -1.745241e-04)
);

blocks
(
   hex (0 1 5 4 0 1 2 3) (1500 200 1) simpleGrading (1 1 1)

);

edges
(
    arc 3 4(0 1.000000e-02 0)
    arc 2 5(2.600000e+00 1.000000e-02 0)
);

boundary
(
    end1
    {
        type patch;
        faces
        (
            (0 3 4 0)
        );
    }
    end2
    {
        type patch;
        faces
        (
            (1 5 2 1)
        );
    }
    top
    {
        type wall;
        faces
        (
            (3 2 5 4)
        );
    }
    front
    {
        type wedge;
        faces
        (
            (0 1 2 3)
        );
    }
    back
    {
        type wedge;
        faces
        (
            (0 4 5 1)
        );
    }
    axis
    {
        type empty;
        faces
        (
            (0 1 1 0)
        );
    }
       
);

mergePatchPairs
(
);
