/*--------------------------------*- C++ -*----------------------------------*\
  =========                 |
  \\      /  F ield         | OpenFOAM: The Open Source CFD Toolbox
   \\    /   O peration     | Website:  https://openfoam.org
    \\  /    A nd           | Version:  10
     \\/     M anipulation  |
\*---------------------------------------------------------------------------*/
FoamFile
{
    format      ascii;
    class       polyBoundaryMesh;
    location    "constant/polyMesh";
    object      boundary;
}
// * * * * * * * * * * * * * * * * * * * * * * * * * * * * * * * * * * * * * //

6
(
    end1
    {
        type            patch;
        nFaces          200;
        startFace       598300;
    }
    end2
    {
        type            patch;
        nFaces          200;
        startFace       598500;
    }
    top
    {
        type            wall;
        inGroups        List<word> 1(wall);
        nFaces          1500;
        startFace       598700;
    }
    front
    {
        type            wedge;
        inGroups        List<word> 1(wedge);
        nFaces          300000;
        startFace       600200;
    }
    back
    {
        type            wedge;
        inGroups        List<word> 1(wedge);
        nFaces          300000;
        startFace       900200;
    }
    axis
    {
        type            empty;
        inGroups        List<word> 1(empty);
        nFaces          0;
        startFace       1200200;
    }
)

// ************************************************************************* //
