/*--------------------------------*- C++ -*----------------------------------*\
  =========                 |
  \\      /  F ield         | OpenFOAM: The Open Source CFD Toolbox
   \\    /   O peration     | Website:  https://openfoam.org
    \\  /    A nd           | Version:  10
     \\/     M anipulation  |
\*---------------------------------------------------------------------------*/
FoamFile
{
    format      ascii;
    class       volScalarField;
    object      T;
}
// * * * * * * * * * * * * * * * * * * * * * * * * * * * * * * * * * * * * * //

dimensions      [ 0 0 0 1 0 0 0 ];

internalField   uniform 100;

boundaryField
{/*
    wall
    {
        type            compressible::turbulentTemperatureCoupledBaffleMixed;
        kappa           kappa;
        Tnbr            T;
        value           $internalField;
    }
    upperwall
    {
        type            fixedValue;
        value		uniform 400;
    }
    rightwall
    {
        type            fixedValue;
        value		uniform	100;
    }
    leftwall
    {
        type            fixedValue;
        value			uniform 100;
    }
    bottomwall
    {
        type            fixedValue;
        value			uniform 100;
    }
    frontandback
    {
        type            empty;
    }
    external
    {
        type            externalWallHeatFluxTemperature;
        h               uniform 1e3;
        Ta              $internalField;
        value           $internalField;
    }*/
    end1
    {
        type            fixedValue;
        value		uniform 400;
    }
    end2
    {
        type            externalWallHeatFluxTemperature;
        h               uniform 1e3;
        Ta              $internalField;
        value           $internalField;
    }
    top
    {
        type            externalWallHeatFluxTemperature;
        h               uniform 1e3;
        Ta              $internalField;
        value           $internalField;
    }
    front
    {
        type            wedge;
        
    }
    back
    {
        type            wedge;
        }
    axis
    {
        type            empty;
    }
    }
// ************************************************************************* //
